AMOSTRA/ABA/_ATERRAMENTO.dss
! Aterramento do neutro (no 4) dos secundarios de BT
! Reactor de 0.5 ohm entre o no 4 e a terra (no 0).
New Reactor.NEUTRO_2715230-10520261v phases=1 bus1=2715230-10520261v.4 bus2=2715230-10520261v.0 R=0.5 X=0
New Reactor.NEUTRO_2715231-10520100 phases=1 bus1=2715231-10520100.4 bus2=2715231-10520100.0 R=0.5 X=0
New Reactor.NEUTRO_2715232-10520515v phases=1 bus1=2715232-10520515v.4 bus2=2715232-10520515v.0 R=0.5 X=0
New Reactor.NEUTRO_2715237-11288088 phases=1 bus1=2715237-11288088.4 bus2=2715237-11288088.0 R=0.5 X=0
New Reactor.NEUTRO_2746278-10697519 phases=1 bus1=2746278-10697519.4 bus2=2746278-10697519.0 R=0.5 X=0
New Reactor.NEUTRO_2746279-10701677v phases=1 bus1=2746279-10701677v.4 bus2=2746279-10701677v.0 R=0.5 X=0
New Reactor.NEUTRO_2746287-10715279v phases=1 bus1=2746287-10715279v.4 bus2=2746287-10715279v.0 R=0.5 X=0
New Reactor.NEUTRO_2746288-10712754 phases=1 bus1=2746288-10712754.4 bus2=2746288-10712754.0 R=0.5 X=0
New Reactor.NEUTRO_2746289-10701667v phases=1 bus1=2746289-10701667v.4 bus2=2746289-10701667v.0 R=0.5 X=0
New Reactor.NEUTRO_2746290-10697962v phases=1 bus1=2746290-10697962v.4 bus2=2746290-10697962v.0 R=0.5 X=0
New Reactor.NEUTRO_2746291-10706016 phases=1 bus1=2746291-10706016.4 bus2=2746291-10706016.0 R=0.5 X=0
New Reactor.NEUTRO_2746292-10708433v phases=1 bus1=2746292-10708433v.4 bus2=2746292-10708433v.0 R=0.5 X=0
New Reactor.NEUTRO_2746293-10715117v phases=1 bus1=2746293-10715117v.4 bus2=2746293-10715117v.0 R=0.5 X=0
New Reactor.NEUTRO_2746301-10709268 phases=1 bus1=2746301-10709268.4 bus2=2746301-10709268.0 R=0.5 X=0
New Reactor.NEUTRO_2746302-10712664v phases=1 bus1=2746302-10712664v.4 bus2=2746302-10712664v.0 R=0.5 X=0
New Reactor.NEUTRO_2746303-10707354 phases=1 bus1=2746303-10707354.4 bus2=2746303-10707354.0 R=0.5 X=0
New Reactor.NEUTRO_2746304-10712851 phases=1 bus1=2746304-10712851.4 bus2=2746304-10712851.0 R=0.5 X=0
New Reactor.NEUTRO_2746305-10705081v phases=1 bus1=2746305-10705081v.4 bus2=2746305-10705081v.0 R=0.5 X=0
New Reactor.NEUTRO_2746306-10711578 phases=1 bus1=2746306-10711578.4 bus2=2746306-10711578.0 R=0.5 X=0
New Reactor.NEUTRO_2746307-10697777 phases=1 bus1=2746307-10697777.4 bus2=2746307-10697777.0 R=0.5 X=0
New Reactor.NEUTRO_2746309-10702829 phases=1 bus1=2746309-10702829.4 bus2=2746309-10702829.0 R=0.5 X=0
New Reactor.NEUTRO_2746310-10707943v phases=1 bus1=2746310-10707943v.4 bus2=2746310-10707943v.0 R=0.5 X=0
New Reactor.NEUTRO_2746312-10710255 phases=1 bus1=2746312-10710255.4 bus2=2746312-10710255.0 R=0.5 X=0
New Reactor.NEUTRO_2746318-10705632 phases=1 bus1=2746318-10705632.4 bus2=2746318-10705632.0 R=0.5 X=0
New Reactor.NEUTRO_2746320-10703131 phases=1 bus1=2746320-10703131.4 bus2=2746320-10703131.0 R=0.5 X=0
New Reactor.NEUTRO_2746321-10707624v phases=1 bus1=2746321-10707624v.4 bus2=2746321-10707624v.0 R=0.5 X=0
New Reactor.NEUTRO_2746322-10710222v phases=1 bus1=2746322-10710222v.4 bus2=2746322-10710222v.0 R=0.5 X=0
New Reactor.NEUTRO_2746323-10712407 phases=1 bus1=2746323-10712407.4 bus2=2746323-10712407.0 R=0.5 X=0
New Reactor.NEUTRO_2746324-10707670 phases=1 bus1=2746324-10707670.4 bus2=2746324-10707670.0 R=0.5 X=0
New Reactor.NEUTRO_2746325-10701507 phases=1 bus1=2746325-10701507.4 bus2=2746325-10701507.0 R=0.5 X=0
New Reactor.NEUTRO_2746326-10710283 phases=1 bus1=2746326-10710283.4 bus2=2746326-10710283.0 R=0.5 X=0
New Reactor.NEUTRO_2746327-10701505 phases=1 bus1=2746327-10701505.4 bus2=2746327-10701505.0 R=0.5 X=0
New Reactor.NEUTRO_2746336-10703880 phases=1 bus1=2746336-10703880.4 bus2=2746336-10703880.0 R=0.5 X=0
New Reactor.NEUTRO_2746341-10711535v phases=1 bus1=2746341-10711535v.4 bus2=2746341-10711535v.0 R=0.5 X=0
New Reactor.NEUTRO_2746342-10701352 phases=1 bus1=2746342-10701352.4 bus2=2746342-10701352.0 R=0.5 X=0
New Reactor.NEUTRO_2746344-10710462 phases=1 bus1=2746344-10710462.4 bus2=2746344-10710462.0 R=0.5 X=0
New Reactor.NEUTRO_2746345-10701647 phases=1 bus1=2746345-10701647.4 bus2=2746345-10701647.0 R=0.5 X=0
New Reactor.NEUTRO_2746346-10712810v phases=1 bus1=2746346-10712810v.4 bus2=2746346-10712810v.0 R=0.5 X=0
New Reactor.NEUTRO_2746347-10698605 phases=1 bus1=2746347-10698605.4 bus2=2746347-10698605.0 R=0.5 X=0
New Reactor.NEUTRO_2746348-10714572 phases=1 bus1=2746348-10714572.4 bus2=2746348-10714572.0 R=0.5 X=0
New Reactor.NEUTRO_2746351-10698221 phases=1 bus1=2746351-10698221.4 bus2=2746351-10698221.0 R=0.5 X=0
New Reactor.NEUTRO_2746352-10713239 phases=1 bus1=2746352-10713239.4 bus2=2746352-10713239.0 R=0.5 X=0
New Reactor.NEUTRO_2746362-10713244 phases=1 bus1=2746362-10713244.4 bus2=2746362-10713244.0 R=0.5 X=0
New Reactor.NEUTRO_2746366-10705693 phases=1 bus1=2746366-10705693.4 bus2=2746366-10705693.0 R=0.5 X=0
New Reactor.NEUTRO_2746368-10701535v phases=1 bus1=2746368-10701535v.4 bus2=2746368-10701535v.0 R=0.5 X=0
New Reactor.NEUTRO_2746374-10710663v phases=1 bus1=2746374-10710663v.4 bus2=2746374-10710663v.0 R=0.5 X=0
New Reactor.NEUTRO_2746375-10705762 phases=1 bus1=2746375-10705762.4 bus2=2746375-10705762.0 R=0.5 X=0
New Reactor.NEUTRO_2746377-10704308 phases=1 bus1=2746377-10704308.4 bus2=2746377-10704308.0 R=0.5 X=0
New Reactor.NEUTRO_2746378-10700607v phases=1 bus1=2746378-10700607v.4 bus2=2746378-10700607v.0 R=0.5 X=0
New Reactor.NEUTRO_2746379-10711579v phases=1 bus1=2746379-10711579v.4 bus2=2746379-10711579v.0 R=0.5 X=0
New Reactor.NEUTRO_2746380-10707927v phases=1 bus1=2746380-10707927v.4 bus2=2746380-10707927v.0 R=0.5 X=0
New Reactor.NEUTRO_2746394-10706022v phases=1 bus1=2746394-10706022v.4 bus2=2746394-10706022v.0 R=0.5 X=0
New Reactor.NEUTRO_2746395-10707903v phases=1 bus1=2746395-10707903v.4 bus2=2746395-10707903v.0 R=0.5 X=0
New Reactor.NEUTRO_2746396-10707889v phases=1 bus1=2746396-10707889v.4 bus2=2746396-10707889v.0 R=0.5 X=0
New Reactor.NEUTRO_2746397-10705758v phases=1 bus1=2746397-10705758v.4 bus2=2746397-10705758v.0 R=0.5 X=0
New Reactor.NEUTRO_2746403-10697605 phases=1 bus1=2746403-10697605.4 bus2=2746403-10697605.0 R=0.5 X=0
New Reactor.NEUTRO_2746405-10702690 phases=1 bus1=2746405-10702690.4 bus2=2746405-10702690.0 R=0.5 X=0
New Reactor.NEUTRO_2746416-10702992v phases=1 bus1=2746416-10702992v.4 bus2=2746416-10702992v.0 R=0.5 X=0
New Reactor.NEUTRO_2746417-10702807 phases=1 bus1=2746417-10702807.4 bus2=2746417-10702807.0 R=0.5 X=0
New Reactor.NEUTRO_2746418-10704753 phases=1 bus1=2746418-10704753.4 bus2=2746418-10704753.0 R=0.5 X=0
New Reactor.NEUTRO_2746420-10708267 phases=1 bus1=2746420-10708267.4 bus2=2746420-10708267.0 R=0.5 X=0
New Reactor.NEUTRO_2746421-10702027 phases=1 bus1=2746421-10702027.4 bus2=2746421-10702027.0 R=0.5 X=0
New Reactor.NEUTRO_2746422-10703540 phases=1 bus1=2746422-10703540.4 bus2=2746422-10703540.0 R=0.5 X=0
New Reactor.NEUTRO_2746423-10696213 phases=1 bus1=2746423-10696213.4 bus2=2746423-10696213.0 R=0.5 X=0
New Reactor.NEUTRO_2746433-10701674v phases=1 bus1=2746433-10701674v.4 bus2=2746433-10701674v.0 R=0.5 X=0
New Reactor.NEUTRO_2746434-10703480 phases=1 bus1=2746434-10703480.4 bus2=2746434-10703480.0 R=0.5 X=0
New Reactor.NEUTRO_2746441-10710163 phases=1 bus1=2746441-10710163.4 bus2=2746441-10710163.0 R=0.5 X=0
New Reactor.NEUTRO_2746442-10698319 phases=1 bus1=2746442-10698319.4 bus2=2746442-10698319.0 R=0.5 X=0
New Reactor.NEUTRO_2746449-10703240v phases=1 bus1=2746449-10703240v.4 bus2=2746449-10703240v.0 R=0.5 X=0
New Reactor.NEUTRO_2746452-10707145v phases=1 bus1=2746452-10707145v.4 bus2=2746452-10707145v.0 R=0.5 X=0
New Reactor.NEUTRO_2746453-10712584v phases=1 bus1=2746453-10712584v.4 bus2=2746453-10712584v.0 R=0.5 X=0
New Reactor.NEUTRO_2746460-10714562 phases=1 bus1=2746460-10714562.4 bus2=2746460-10714562.0 R=0.5 X=0
New Reactor.NEUTRO_2746462-10699056 phases=1 bus1=2746462-10699056.4 bus2=2746462-10699056.0 R=0.5 X=0
New Reactor.NEUTRO_2746463-10706172 phases=1 bus1=2746463-10706172.4 bus2=2746463-10706172.0 R=0.5 X=0
New Reactor.NEUTRO_2746467-10709911v phases=1 bus1=2746467-10709911v.4 bus2=2746467-10709911v.0 R=0.5 X=0
New Reactor.NEUTRO_2746468-10697805 phases=1 bus1=2746468-10697805.4 bus2=2746468-10697805.0 R=0.5 X=0
New Reactor.NEUTRO_2746469-10701405 phases=1 bus1=2746469-10701405.4 bus2=2746469-10701405.0 R=0.5 X=0
New Reactor.NEUTRO_2746470-10712473 phases=1 bus1=2746470-10712473.4 bus2=2746470-10712473.0 R=0.5 X=0
New Reactor.NEUTRO_2746471-10715315v phases=1 bus1=2746471-10715315v.4 bus2=2746471-10715315v.0 R=0.5 X=0
New Reactor.NEUTRO_2746473-10710146 phases=1 bus1=2746473-10710146.4 bus2=2746473-10710146.0 R=0.5 X=0
New Reactor.NEUTRO_2746474-10701223 phases=1 bus1=2746474-10701223.4 bus2=2746474-10701223.0 R=0.5 X=0
New Reactor.NEUTRO_2746475-10714825 phases=1 bus1=2746475-10714825.4 bus2=2746475-10714825.0 R=0.5 X=0
New Reactor.NEUTRO_2746476-10710129v phases=1 bus1=2746476-10710129v.4 bus2=2746476-10710129v.0 R=0.5 X=0
New Reactor.NEUTRO_2746477-10704157v phases=1 bus1=2746477-10704157v.4 bus2=2746477-10704157v.0 R=0.5 X=0
New Reactor.NEUTRO_2746479-10706321v phases=1 bus1=2746479-10706321v.4 bus2=2746479-10706321v.0 R=0.5 X=0
New Reactor.NEUTRO_2746486-10700114v phases=1 bus1=2746486-10700114v.4 bus2=2746486-10700114v.0 R=0.5 X=0
New Reactor.NEUTRO_2746488-10705416 phases=1 bus1=2746488-10705416.4 bus2=2746488-10705416.0 R=0.5 X=0
New Reactor.NEUTRO_2746489-10715034v phases=1 bus1=2746489-10715034v.4 bus2=2746489-10715034v.0 R=0.5 X=0
New Reactor.NEUTRO_2746490-10705557v phases=1 bus1=2746490-10705557v.4 bus2=2746490-10705557v.0 R=0.5 X=0
New Reactor.NEUTRO_2746491-10715290 phases=1 bus1=2746491-10715290.4 bus2=2746491-10715290.0 R=0.5 X=0
New Reactor.NEUTRO_2746492-10712641v phases=1 bus1=2746492-10712641v.4 bus2=2746492-10712641v.0 R=0.5 X=0
New Reactor.NEUTRO_2746493-10702015 phases=1 bus1=2746493-10702015.4 bus2=2746493-10702015.0 R=0.5 X=0
New Reactor.NEUTRO_2746506-10698601 phases=1 bus1=2746506-10698601.4 bus2=2746506-10698601.0 R=0.5 X=0
New Reactor.NEUTRO_2746507-10707321 phases=1 bus1=2746507-10707321.4 bus2=2746507-10707321.0 R=0.5 X=0
New Reactor.NEUTRO_2746510-10703186 phases=1 bus1=2746510-10703186.4 bus2=2746510-10703186.0 R=0.5 X=0
New Reactor.NEUTRO_2746511-10712454 phases=1 bus1=2746511-10712454.4 bus2=2746511-10712454.0 R=0.5 X=0
New Reactor.NEUTRO_2746512-10707964 phases=1 bus1=2746512-10707964.4 bus2=2746512-10707964.0 R=0.5 X=0
New Reactor.NEUTRO_2746513-10712537 phases=1 bus1=2746513-10712537.4 bus2=2746513-10712537.0 R=0.5 X=0
New Reactor.NEUTRO_2746517-10712841v phases=1 bus1=2746517-10712841v.4 bus2=2746517-10712841v.0 R=0.5 X=0
New Reactor.NEUTRO_2746519-10703203v phases=1 bus1=2746519-10703203v.4 bus2=2746519-10703203v.0 R=0.5 X=0
New Reactor.NEUTRO_2746521-10700853 phases=1 bus1=2746521-10700853.4 bus2=2746521-10700853.0 R=0.5 X=0
New Reactor.NEUTRO_2746524-10703457v phases=1 bus1=2746524-10703457v.4 bus2=2746524-10703457v.0 R=0.5 X=0
New Reactor.NEUTRO_2746525-10702585v phases=1 bus1=2746525-10702585v.4 bus2=2746525-10702585v.0 R=0.5 X=0
New Reactor.NEUTRO_2746526-10701599 phases=1 bus1=2746526-10701599.4 bus2=2746526-10701599.0 R=0.5 X=0
New Reactor.NEUTRO_2746541-10707940 phases=1 bus1=2746541-10707940.4 bus2=2746541-10707940.0 R=0.5 X=0
New Reactor.NEUTRO_2746542-10709661v phases=1 bus1=2746542-10709661v.4 bus2=2746542-10709661v.0 R=0.5 X=0
New Reactor.NEUTRO_2746543-10710380v phases=1 bus1=2746543-10710380v.4 bus2=2746543-10710380v.0 R=0.5 X=0
New Reactor.NEUTRO_2746546-10702039 phases=1 bus1=2746546-10702039.4 bus2=2746546-10702039.0 R=0.5 X=0
New Reactor.NEUTRO_2746547-10702045 phases=1 bus1=2746547-10702045.4 bus2=2746547-10702045.0 R=0.5 X=0
New Reactor.NEUTRO_2746549-10698237 phases=1 bus1=2746549-10698237.4 bus2=2746549-10698237.0 R=0.5 X=0
New Reactor.NEUTRO_2746550-10696332 phases=1 bus1=2746550-10696332.4 bus2=2746550-10696332.0 R=0.5 X=0
New Reactor.NEUTRO_2746551-10712656v phases=1 bus1=2746551-10712656v.4 bus2=2746551-10712656v.0 R=0.5 X=0
New Reactor.NEUTRO_2746555-10696216 phases=1 bus1=2746555-10696216.4 bus2=2746555-10696216.0 R=0.5 X=0
New Reactor.NEUTRO_2746556-10699516v phases=1 bus1=2746556-10699516v.4 bus2=2746556-10699516v.0 R=0.5 X=0
New Reactor.NEUTRO_2746568-10705652 phases=1 bus1=2746568-10705652.4 bus2=2746568-10705652.0 R=0.5 X=0
New Reactor.NEUTRO_2746569-10712846v phases=1 bus1=2746569-10712846v.4 bus2=2746569-10712846v.0 R=0.5 X=0
New Reactor.NEUTRO_2746571-10712661v phases=1 bus1=2746571-10712661v.4 bus2=2746571-10712661v.0 R=0.5 X=0
New Reactor.NEUTRO_2746573-10715259v phases=1 bus1=2746573-10715259v.4 bus2=2746573-10715259v.0 R=0.5 X=0
New Reactor.NEUTRO_2746574-10707906 phases=1 bus1=2746574-10707906.4 bus2=2746574-10707906.0 R=0.5 X=0
New Reactor.NEUTRO_2746580-10712171v phases=1 bus1=2746580-10712171v.4 bus2=2746580-10712171v.0 R=0.5 X=0
New Reactor.NEUTRO_2746581-10705659 phases=1 bus1=2746581-10705659.4 bus2=2746581-10705659.0 R=0.5 X=0
New Reactor.NEUTRO_2746586-13247425 phases=1 bus1=2746586-13247425.4 bus2=2746586-13247425.0 R=0.5 X=0
New Reactor.NEUTRO_2746588-10698274 phases=1 bus1=2746588-10698274.4 bus2=2746588-10698274.0 R=0.5 X=0
New Reactor.NEUTRO_2746590-10703545 phases=1 bus1=2746590-10703545.4 bus2=2746590-10703545.0 R=0.5 X=0
New Reactor.NEUTRO_2746591-10702056 phases=1 bus1=2746591-10702056.4 bus2=2746591-10702056.0 R=0.5 X=0
New Reactor.NEUTRO_2746592-10703443 phases=1 bus1=2746592-10703443.4 bus2=2746592-10703443.0 R=0.5 X=0
New Reactor.NEUTRO_2746594-10711977 phases=1 bus1=2746594-10711977.4 bus2=2746594-10711977.0 R=0.5 X=0
New Reactor.NEUTRO_2746595-10698277 phases=1 bus1=2746595-10698277.4 bus2=2746595-10698277.0 R=0.5 X=0
New Reactor.NEUTRO_2746596-10701065 phases=1 bus1=2746596-10701065.4 bus2=2746596-10701065.0 R=0.5 X=0
New Reactor.NEUTRO_2746597-10700711v phases=1 bus1=2746597-10700711v.4 bus2=2746597-10700711v.0 R=0.5 X=0
New Reactor.NEUTRO_2746598-10701627 phases=1 bus1=2746598-10701627.4 bus2=2746598-10701627.0 R=0.5 X=0
New Reactor.NEUTRO_2746599-10709546 phases=1 bus1=2746599-10709546.4 bus2=2746599-10709546.0 R=0.5 X=0
New Reactor.NEUTRO_2746600-10705665v phases=1 bus1=2746600-10705665v.4 bus2=2746600-10705665v.0 R=0.5 X=0
New Reactor.NEUTRO_2746602-10715262v phases=1 bus1=2746602-10715262v.4 bus2=2746602-10715262v.0 R=0.5 X=0
New Reactor.NEUTRO_2746603-10697377 phases=1 bus1=2746603-10697377.4 bus2=2746603-10697377.0 R=0.5 X=0
New Reactor.NEUTRO_2746605-10704802v phases=1 bus1=2746605-10704802v.4 bus2=2746605-10704802v.0 R=0.5 X=0
New Reactor.NEUTRO_2746606-10715280v phases=1 bus1=2746606-10715280v.4 bus2=2746606-10715280v.0 R=0.5 X=0
New Reactor.NEUTRO_2746607-10709670v phases=1 bus1=2746607-10709670v.4 bus2=2746607-10709670v.0 R=0.5 X=0
New Reactor.NEUTRO_2746608-10711935 phases=1 bus1=2746608-10711935.4 bus2=2746608-10711935.0 R=0.5 X=0
New Reactor.NEUTRO_2746610-10709593 phases=1 bus1=2746610-10709593.4 bus2=2746610-10709593.0 R=0.5 X=0
New Reactor.NEUTRO_2746611-10702032 phases=1 bus1=2746611-10702032.4 bus2=2746611-10702032.0 R=0.5 X=0
New Reactor.NEUTRO_2746612-10699500v phases=1 bus1=2746612-10699500v.4 bus2=2746612-10699500v.0 R=0.5 X=0
New Reactor.NEUTRO_2746613-10705633v phases=1 bus1=2746613-10705633v.4 bus2=2746613-10705633v.0 R=0.5 X=0
New Reactor.NEUTRO_2746618-10698246v phases=1 bus1=2746618-10698246v.4 bus2=2746618-10698246v.0 R=0.5 X=0
New Reactor.NEUTRO_2746619-10711984 phases=1 bus1=2746619-10711984.4 bus2=2746619-10711984.0 R=0.5 X=0
New Reactor.NEUTRO_2746620-10705667 phases=1 bus1=2746620-10705667.4 bus2=2746620-10705667.0 R=0.5 X=0
New Reactor.NEUTRO_2746621-10711991 phases=1 bus1=2746621-10711991.4 bus2=2746621-10711991.0 R=0.5 X=0
New Reactor.NEUTRO_2746622-10708573 phases=1 bus1=2746622-10708573.4 bus2=2746622-10708573.0 R=0.5 X=0
New Reactor.NEUTRO_2746627-10698146v phases=1 bus1=2746627-10698146v.4 bus2=2746627-10698146v.0 R=0.5 X=0
New Reactor.NEUTRO_2746628-10712865 phases=1 bus1=2746628-10712865.4 bus2=2746628-10712865.0 R=0.5 X=0
New Reactor.NEUTRO_2746630-10707849 phases=1 bus1=2746630-10707849.4 bus2=2746630-10707849.0 R=0.5 X=0
New Reactor.NEUTRO_2746632-10698212v phases=1 bus1=2746632-10698212v.4 bus2=2746632-10698212v.0 R=0.5 X=0
New Reactor.NEUTRO_2746635-10703490 phases=1 bus1=2746635-10703490.4 bus2=2746635-10703490.0 R=0.5 X=0
New Reactor.NEUTRO_2746636-10710501 phases=1 bus1=2746636-10710501.4 bus2=2746636-10710501.0 R=0.5 X=0
New Reactor.NEUTRO_2746637-11422424v phases=1 bus1=2746637-11422424v.4 bus2=2746637-11422424v.0 R=0.5 X=0
New Reactor.NEUTRO_2746638-10715155v phases=1 bus1=2746638-10715155v.4 bus2=2746638-10715155v.0 R=0.5 X=0
New Reactor.NEUTRO_2746646-10713380v phases=1 bus1=2746646-10713380v.4 bus2=2746646-10713380v.0 R=0.5 X=0
New Reactor.NEUTRO_2746647-10706395 phases=1 bus1=2746647-10706395.4 bus2=2746647-10706395.0 R=0.5 X=0
New Reactor.NEUTRO_2746648-10710659v phases=1 bus1=2746648-10710659v.4 bus2=2746648-10710659v.0 R=0.5 X=0
New Reactor.NEUTRO_2746651-10703075 phases=1 bus1=2746651-10703075.4 bus2=2746651-10703075.0 R=0.5 X=0
New Reactor.NEUTRO_2746652-10707439 phases=1 bus1=2746652-10707439.4 bus2=2746652-10707439.0 R=0.5 X=0
New Reactor.NEUTRO_2746653-10714768v phases=1 bus1=2746653-10714768v.4 bus2=2746653-10714768v.0 R=0.5 X=0
New Reactor.NEUTRO_2746654-10705265v phases=1 bus1=2746654-10705265v.4 bus2=2746654-10705265v.0 R=0.5 X=0
New Reactor.NEUTRO_2746655-10710492 phases=1 bus1=2746655-10710492.4 bus2=2746655-10710492.0 R=0.5 X=0
New Reactor.NEUTRO_2746657-10710495v phases=1 bus1=2746657-10710495v.4 bus2=2746657-10710495v.0 R=0.5 X=0
New Reactor.NEUTRO_2746658-10707809v phases=1 bus1=2746658-10707809v.4 bus2=2746658-10707809v.0 R=0.5 X=0
New Reactor.NEUTRO_2746659-10715198 phases=1 bus1=2746659-10715198.4 bus2=2746659-10715198.0 R=0.5 X=0
New Reactor.NEUTRO_2746660-10698140 phases=1 bus1=2746660-10698140.4 bus2=2746660-10698140.0 R=0.5 X=0
New Reactor.NEUTRO_2746661-10714865 phases=1 bus1=2746661-10714865.4 bus2=2746661-10714865.0 R=0.5 X=0
New Reactor.NEUTRO_2746662-10714867 phases=1 bus1=2746662-10714867.4 bus2=2746662-10714867.0 R=0.5 X=0
New Reactor.NEUTRO_2746663-10703276v phases=1 bus1=2746663-10703276v.4 bus2=2746663-10703276v.0 R=0.5 X=0
New Reactor.NEUTRO_2746664-10697929 phases=1 bus1=2746664-10697929.4 bus2=2746664-10697929.0 R=0.5 X=0
New Reactor.NEUTRO_2746665-10697927 phases=1 bus1=2746665-10697927.4 bus2=2746665-10697927.0 R=0.5 X=0
New Reactor.NEUTRO_2746666-10714827v phases=1 bus1=2746666-10714827v.4 bus2=2746666-10714827v.0 R=0.5 X=0
New Reactor.NEUTRO_2746667-10700791 phases=1 bus1=2746667-10700791.4 bus2=2746667-10700791.0 R=0.5 X=0
New Reactor.NEUTRO_2746668-10703465v phases=1 bus1=2746668-10703465v.4 bus2=2746668-10703465v.0 R=0.5 X=0
New Reactor.NEUTRO_2746670-10706191v phases=1 bus1=2746670-10706191v.4 bus2=2746670-10706191v.0 R=0.5 X=0
New Reactor.NEUTRO_2746673-10707891 phases=1 bus1=2746673-10707891.4 bus2=2746673-10707891.0 R=0.5 X=0
New Reactor.NEUTRO_2746674-10712852v phases=1 bus1=2746674-10712852v.4 bus2=2746674-10712852v.0 R=0.5 X=0
New Reactor.NEUTRO_2746675-10714834 phases=1 bus1=2746675-10714834.4 bus2=2746675-10714834.0 R=0.5 X=0
New Reactor.NEUTRO_2746676-10708044 phases=1 bus1=2746676-10708044.4 bus2=2746676-10708044.0 R=0.5 X=0
New Reactor.NEUTRO_2746677-13044249 phases=1 bus1=2746677-13044249.4 bus2=2746677-13044249.0 R=0.5 X=0
New Reactor.NEUTRO_2746682-10701277 phases=1 bus1=2746682-10701277.4 bus2=2746682-10701277.0 R=0.5 X=0
New Reactor.NEUTRO_2746692-10709639 phases=1 bus1=2746692-10709639.4 bus2=2746692-10709639.0 R=0.5 X=0
New Reactor.NEUTRO_2746694-10710114 phases=1 bus1=2746694-10710114.4 bus2=2746694-10710114.0 R=0.5 X=0
New Reactor.NEUTRO_2746695-10698133 phases=1 bus1=2746695-10698133.4 bus2=2746695-10698133.0 R=0.5 X=0
New Reactor.NEUTRO_2746696-10705336v phases=1 bus1=2746696-10705336v.4 bus2=2746696-10705336v.0 R=0.5 X=0
New Reactor.NEUTRO_2746697-10710221 phases=1 bus1=2746697-10710221.4 bus2=2746697-10710221.0 R=0.5 X=0
New Reactor.NEUTRO_2746698-10701210 phases=1 bus1=2746698-10701210.4 bus2=2746698-10701210.0 R=0.5 X=0
New Reactor.NEUTRO_2746699-10707627v phases=1 bus1=2746699-10707627v.4 bus2=2746699-10707627v.0 R=0.5 X=0
New Reactor.NEUTRO_2746700-10703129 phases=1 bus1=2746700-10703129.4 bus2=2746700-10703129.0 R=0.5 X=0
New Reactor.NEUTRO_2746701-10712497 phases=1 bus1=2746701-10712497.4 bus2=2746701-10712497.0 R=0.5 X=0
New Reactor.NEUTRO_2746704-10712679 phases=1 bus1=2746704-10712679.4 bus2=2746704-10712679.0 R=0.5 X=0
New Reactor.NEUTRO_2746705-10705634v phases=1 bus1=2746705-10705634v.4 bus2=2746705-10705634v.0 R=0.5 X=0
New Reactor.NEUTRO_2746706-10703983 phases=1 bus1=2746706-10703983.4 bus2=2746706-10703983.0 R=0.5 X=0
New Reactor.NEUTRO_2746707-10699886 phases=1 bus1=2746707-10699886.4 bus2=2746707-10699886.0 R=0.5 X=0
New Reactor.NEUTRO_2746708-10699074 phases=1 bus1=2746708-10699074.4 bus2=2746708-10699074.0 R=0.5 X=0
New Reactor.NEUTRO_2746714-10697842 phases=1 bus1=2746714-10697842.4 bus2=2746714-10697842.0 R=0.5 X=0
New Reactor.NEUTRO_2746715-10703021v phases=1 bus1=2746715-10703021v.4 bus2=2746715-10703021v.0 R=0.5 X=0
New Reactor.NEUTRO_2746716-10707716v phases=1 bus1=2746716-10707716v.4 bus2=2746716-10707716v.0 R=0.5 X=0
...
